This file contains any messages produced by compilers while
running configure, to aid debugging if configure makes a mistake.

It was created by Specfem 2D configure 7.0.0, which was
generated by GNU Autoconf 2.69.  Invocation command line was

  $ ./configure FC=ifort MPIFC=mpif90 --with-mpi --with-scotch-dir=./src/meshfem2D/scotch_6.0.4

## --------- ##
## Platform. ##
## --------- ##

hostname = gr-fe1.lanl.gov
uname -m = x86_64
uname -r = 3.10.0-693.11.6.1chaos.ch6.x86_64
uname -s = Linux
uname -v = #1 SMP Wed Jan 3 18:19:50 PST 2018

/usr/bin/uname -p = x86_64
/bin/uname -X     = unknown

/bin/arch              = x86_64
/usr/bin/arch -k       = unknown
/usr/convex/getsysinfo = unknown
/usr/bin/hostinfo      = unknown
/bin/machine           = unknown
/usr/bin/oslevel       = unknown
/bin/universe          = unknown

PATH: /usr/projects/hpcsoft/toss3/grizzly/openmpi/2.1.2-intel-17.0.4/bin
PATH: /usr/projects/hpcsoft/toss3/common/gcc/5.3.0/bin
PATH: /usr/projects/hpcsoft/toss3/common/intel-clusterstudio/2017.4.056/compilers_and_libraries_2017/linux/bin/intel64
PATH: /usr/lib64/qt-3.3/bin
PATH: /usr/local/bin
PATH: /usr/bin
PATH: /usr/local/sbin
PATH: /usr/sbin
PATH: /turquoise/users/wenyongp/SeisUnix/bin
PATH: /turquoise/users/wenyongp/SeisUnix/bin


## ----------- ##
## Core tests. ##
## ----------- ##

configure:2668: checking for Fortran compiler version
configure:2677: ifort --version >&5
ifort (IFORT) 17.0.4 20170411
Copyright (C) 1985-2017 Intel Corporation.  All rights reserved.

configure:2688: $? = 0
configure:2677: ifort -v >&5
ifort version 17.0.4
configure:2688: $? = 0
configure:2677: ifort -V >&5
Intel(R) Fortran Intel(R) 64 Compiler for applications running on Intel(R) 64, Version 17.0.4.196 Build 20170411
Copyright (C) 1985-2017 Intel Corporation.  All rights reserved.

configure:2688: $? = 0
configure:2677: ifort -qversion >&5
ifort: command line warning #10006: ignoring unknown option '-qversion'
ifort: command line error: no files specified; for help type "ifort -help"
configure:2688: $? = 1
configure:2703: checking whether the Fortran compiler works
configure:2725: ifort    conftest.f  >&5
configure:2729: $? = 0
configure:2777: result: yes
configure:2780: checking for Fortran compiler default output file name
configure:2782: result: a.out
configure:2788: checking for suffix of executables
configure:2795: ifort -o conftest    conftest.f  >&5
configure:2799: $? = 0
configure:2821: result: 
configure:2837: checking whether we are cross compiling
configure:2845: ifort -o conftest    conftest.f  >&5
configure:2849: $? = 0
configure:2856: ./conftest
configure:2860: $? = 0
configure:2875: result: no
configure:2880: checking for suffix of object files
configure:2896: ifort -c   conftest.f >&5
configure:2900: $? = 0
configure:2921: result: o
configure:2929: checking whether we are using the GNU Fortran compiler
configure:2942: ifort -c   conftest.F >&5
conftest.F(3): error #5082: Syntax error, found END-OF-STATEMENT when expecting one of: => = . [ % ( :
       choke me
---------------^
compilation aborted for conftest.F (code 1)
configure:2942: $? = 1
configure: failed program was:
|       program main
| #ifndef __GNUC__
|        choke me
| #endif
| 
|       end
configure:2951: result: no
configure:2957: checking whether ifort accepts -g
configure:2968: ifort -c -g  conftest.f >&5
configure:2968: $? = 0
configure:2976: result: yes
configure:3014: running /bin/sh ./flags.guess
configure:3053: checking build system type
configure:3067: result: x86_64-unknown-linux-gnu
configure:3087: checking host system type
configure:3100: result: x86_64-unknown-linux-gnu
configure:3125: checking how to get verbose linking output from ifort
configure:3135: ifort -c -g  conftest.f >&5
configure:3135: $? = 0
configure:3153: ifort -o conftest -g -v conftest.f
ifort version 17.0.4
/turquoise/usr/projects/hpcsoft/toss3/common/intel-clusterstudio/2017.4.056/compilers_and_libraries_2017.4.196/linux/bin/intel64/fortcom    -D__INTEL_COMPILER=1700 -D__INTEL_COMPILER_UPDATE=4 -D__unix__ -D__unix -D__linux__ -D__linux -D__gnu_linux__ -Dunix -Dlinux -D__ELF__ -D__x86_64 -D__x86_64__ -D__amd64 -D__amd64__ -D__INTEL_COMPILER_BUILD_DATE=20170411 -D__INTEL_OFFLOAD -D__i686 -D__i686__ -D__pentiumpro -D__pentiumpro__ -D__pentium4 -D__pentium4__ -D__tune_pentium4__ -D__SSE2__ -D__SSE2_MATH__ -D__SSE__ -D__SSE_MATH__ -D__MMX__ -mGLOB_pack_sort_init_list -I. -I/usr/projects/hpcsoft/toss3/grizzly/openmpi/2.1.2-intel-17.0.4/include -I/usr/projects/hpcsoft/toss3/common/intel-clusterstudio/2016.3.067/compilers_and_libraries_2016.3.210/linux/mkl/include -I/turquoise/usr/projects/hpcsoft/toss3/common/intel-clusterstudio/2017.4.056/compilers_and_libraries_2017.4.196/linux/compiler/include/intel64 -I/turquoise/usr/projects/hpcsoft/toss3/common/intel-clusterstudio/2017.4.056/compilers_and_libraries_2017.4.196/linux/compiler/include/icc -I/turquoise/usr/projects/hpcsoft/toss3/common/intel-clusterstudio/2017.4.056/compilers_and_libraries_2017.4.196/linux/compiler/include -I/usr/local/include -I/turquoise/usr/projects/hpcsoft/toss3/common/gcc/5.3.0/bin/../lib/gcc/x86_64-unknown-linux-gnu/5.3.0/include -I/turquoise/usr/projects/hpcsoft/toss3/common/gcc/5.3.0/bin/../lib/gcc/x86_64-unknown-linux-gnu/5.3.0/include-fixed -I/turquoise/usr/projects/hpcsoft/toss3/common/gcc/5.3.0/bin/../include/ -I/usr/include "-fp_modbits honor_f32_conversion" "-fp_modbits honor_f64_conversion" -O0 -g2 "-reentrancy threaded" -simd -offload_host -mGLOB_em64t=TRUE -mP1OPT_version=17.0-intel64 -mGLOB_diag_file=/tmp/ifortLP7qOH.diag -mGLOB_long_size_64 -mGLOB_routine_pointer_size_64 -mGLOB_source_language=GLOB_SOURCE_LANGUAGE_F90 -mP2OPT_static_promotion -mP1OPT_print_version=FALSE -mCG_use_gas_got_workaround=F -mP2OPT_align_option_used=TRUE -mGLOB_gcc_version=530 "-mGLOB_options_string=-o conftest -g -v" -mGLOB_cxx_limited_range=FALSE -mCG_extend_parms=FALSE -mGLOB_compiler_bin_directory=/turquoise/usr/projects/hpcsoft/toss3/common/intel-clusterstudio/2017.4.056/compilers_and_libraries_2017.4.196/linux/bin/intel64 -mP3OPT_emit_line_numbers -mP2OPT_suppress_unreferenced_locals=FALSE -mGLOB_debug_target=GLOB_DEBUG_TARGET_ALL -mDEBUG_info_level=2 -mDEBUG_use_indirect_strings=TRUE -mGLOB_debug_format=GLOB_DEBUG_FORMAT_DWARF40 -mGLOB_as_output_backup_file_name=/tmp/ifortHBWCZTas_.s -mGLOB_dashboard_use_source_name -mGLOB_instruction_tuning=0x0 -mGLOB_uarch_tuning=0x0 -mGLOB_product_id_code=0x22006d8f -mGLOB_maintain_errno -mGLOB_noinline_intrinsics -mGLOB_use_base_pointer=1 -mCG_bnl_movbe=T -mGLOB_extended_instructions=0x8 -mP3OPT_use_mspp_call_convention -mP2OPT_subs_out_of_bound=FALSE -mP2OPT_disam_type_based_disam=2 -mGLOB_ansi_alias -mIPOPT_ninl_limit=0 -mIPOPT_ninl_user_level=0 -mPGOPTI_value_profile_use=T -mGLOB_opt_report_use_source_name -mP2OPT_gen_linux_const_pooling=FALSE -mP2OPT_il0_array_sections=TRUE -mGLOB_offload_mode=1 -mP2OPT_offload_unique_var_string=ifort0387523293q4OTuI -mGLOB_opt_level=0 -mIPOPT_args_in_regs=0 -mP2OPT_disam_assume_nonstd_intent_in=FALSE -mGLOB_imf_mapping_library=/turquoise/usr/projects/hpcsoft/toss3/common/intel-clusterstudio/2017.4.056/compilers_and_libraries_2017.4.196/linux/bin/intel64/libiml_attr.so -mIPOPT_single_file_compile_and_link=TRUE -mP2OPT_hlo_embed_loopinfo -mPGOPTI_gen_threadsafe_level=0 -mIPOPT_lto_object_enabled -mIPOPT_lto_object_value=1 -mIPOPT_obj_output_file_name=/tmp/ifortLP7qOH.o -mIPOPT_whole_archive_fixup_file_name=/tmp/ifortwarchy1uoc6 -mGLOB_linker_version=2.25.1 -mGLOB_driver_tempfile_name=/tmp/iforttempfile8Dn5iH -mP3OPT_asm_target=P3OPT_ASM_TARGET_GAS -mGLOB_async_unwind_tables=TRUE -mGLOB_obj_output_file=/tmp/ifortLP7qOH.o -mGLOB_source_dialect=GLOB_SOURCE_DIALECT_FORTRAN -mP1OPT_source_file_name=conftest.f -mP1OPT_full_source_file_name=/turquoise/users/wenyongp/seisDD/specfem2d/conftest.f -mP2OPT_symtab_type_copy=true conftest.f
#include "..." search starts here:
#include <...> search starts here:
 .
 /usr/projects/hpcsoft/toss3/grizzly/openmpi/2.1.2-intel-17.0.4/include
 /usr/projects/hpcsoft/toss3/common/intel-clusterstudio/2016.3.067/compilers_and_libraries_2016.3.210/linux/mkl/include
 /turquoise/usr/projects/hpcsoft/toss3/common/intel-clusterstudio/2017.4.056/compilers_and_libraries_2017.4.196/linux/compiler/include/intel64
 /turquoise/usr/projects/hpcsoft/toss3/common/intel-clusterstudio/2017.4.056/compilers_and_libraries_2017.4.196/linux/compiler/include/icc
 /turquoise/usr/projects/hpcsoft/toss3/common/intel-clusterstudio/2017.4.056/compilers_and_libraries_2017.4.196/linux/compiler/include
 /usr/local/include
 /turquoise/usr/projects/hpcsoft/toss3/common/gcc/5.3.0/bin/../lib/gcc/x86_64-unknown-linux-gnu/5.3.0/include
 /turquoise/usr/projects/hpcsoft/toss3/common/gcc/5.3.0/bin/../lib/gcc/x86_64-unknown-linux-gnu/5.3.0/include-fixed
 /turquoise/usr/projects/hpcsoft/toss3/common/gcc/5.3.0/bin/../include/
 /usr/include
End of search list.
ld    /lib/../lib64/crt1.o /lib/../lib64/crti.o /turquoise/usr/projects/hpcsoft/toss3/common/gcc/5.3.0/bin/../lib/gcc/x86_64-unknown-linux-gnu/5.3.0/crtbegin.o --eh-frame-hdr --build-id -dynamic-linker /lib64/ld-linux-x86-64.so.2 -m elf_x86_64 -o conftest /turquoise/usr/projects/hpcsoft/toss3/common/intel-clusterstudio/2017.4.056/compilers_and_libraries_2017.4.196/linux/compiler/lib/intel64_lin/for_main.o -L/usr/projects/hpcsoft/toss3/common/intel-clusterstudio/2016.3.067/compilers_and_libraries_2016/linux/mkl/lib/intel64 -L/turquoise/usr/projects/hpcsoft/toss3/common/intel-clusterstudio/2017.4.056/compilers_and_libraries_2017.4.196/linux/compiler/lib/intel64_lin -L/turquoise/usr/projects/hpcsoft/toss3/common/gcc/5.3.0/bin/../lib/gcc/x86_64-unknown-linux-gnu/5.3.0/ -L/turquoise/usr/projects/hpcsoft/toss3/common/gcc/5.3.0/bin/../lib/gcc/ -L/turquoise/usr/projects/hpcsoft/toss3/common/gcc/5.3.0/bin/../lib/gcc/x86_64-unknown-linux-gnu/5.3.0/../../../../lib64 -L/turquoise/usr/projects/hpcsoft/toss3/common/gcc/5.3.0/bin/../lib/gcc/x86_64-unknown-linux-gnu/5.3.0/../../../../lib64/ -L/lib/../lib64 -L/lib/../lib64/ -L/usr/lib/../lib64 -L/usr/lib/../lib64/ -L/usr/projects/hpcsoft/toss3/common/intel-clusterstudio/2016.3.067/compilers_and_libraries_2016/linux/mkl/lib/intel64/ -L/turquoise/usr/projects/hpcsoft/toss3/common/gcc/5.3.0/bin/../lib/gcc/x86_64-unknown-linux-gnu/5.3.0/../../../ -L/lib64 -L/lib/ -L/usr/lib64 -L/usr/lib /tmp/ifortLP7qOH.o -Bdynamic -Bstatic -lifport -lifcoremt -limf -lsvml -Bdynamic -lm -Bstatic -lipgo -lirc -Bdynamic -lpthread -Bstatic -lsvml -Bdynamic -lc -lgcc -lgcc_s -Bstatic -lirc_s -Bdynamic -ldl -lc /turquoise/usr/projects/hpcsoft/toss3/common/gcc/5.3.0/bin/../lib/gcc/x86_64-unknown-linux-gnu/5.3.0/crtend.o /lib/../lib64/crtn.o
configure:3236: result: -v
configure:3238: checking for Fortran libraries of ifort
configure:3261: ifort -o conftest -g -v conftest.f
ifort version 17.0.4
/turquoise/usr/projects/hpcsoft/toss3/common/intel-clusterstudio/2017.4.056/compilers_and_libraries_2017.4.196/linux/bin/intel64/fortcom    -D__INTEL_COMPILER=1700 -D__INTEL_COMPILER_UPDATE=4 -D__unix__ -D__unix -D__linux__ -D__linux -D__gnu_linux__ -Dunix -Dlinux -D__ELF__ -D__x86_64 -D__x86_64__ -D__amd64 -D__amd64__ -D__INTEL_COMPILER_BUILD_DATE=20170411 -D__INTEL_OFFLOAD -D__i686 -D__i686__ -D__pentiumpro -D__pentiumpro__ -D__pentium4 -D__pentium4__ -D__tune_pentium4__ -D__SSE2__ -D__SSE2_MATH__ -D__SSE__ -D__SSE_MATH__ -D__MMX__ -mGLOB_pack_sort_init_list -I. -I/usr/projects/hpcsoft/toss3/grizzly/openmpi/2.1.2-intel-17.0.4/include -I/usr/projects/hpcsoft/toss3/common/intel-clusterstudio/2016.3.067/compilers_and_libraries_2016.3.210/linux/mkl/include -I/turquoise/usr/projects/hpcsoft/toss3/common/intel-clusterstudio/2017.4.056/compilers_and_libraries_2017.4.196/linux/compiler/include/intel64 -I/turquoise/usr/projects/hpcsoft/toss3/common/intel-clusterstudio/2017.4.056/compilers_and_libraries_2017.4.196/linux/compiler/include/icc -I/turquoise/usr/projects/hpcsoft/toss3/common/intel-clusterstudio/2017.4.056/compilers_and_libraries_2017.4.196/linux/compiler/include -I/usr/local/include -I/turquoise/usr/projects/hpcsoft/toss3/common/gcc/5.3.0/bin/../lib/gcc/x86_64-unknown-linux-gnu/5.3.0/include -I/turquoise/usr/projects/hpcsoft/toss3/common/gcc/5.3.0/bin/../lib/gcc/x86_64-unknown-linux-gnu/5.3.0/include-fixed -I/turquoise/usr/projects/hpcsoft/toss3/common/gcc/5.3.0/bin/../include/ -I/usr/include "-fp_modbits honor_f32_conversion" "-fp_modbits honor_f64_conversion" -O0 -g2 "-reentrancy threaded" -simd -offload_host -mGLOB_em64t=TRUE -mP1OPT_version=17.0-intel64 -mGLOB_diag_file=/tmp/ifortvBvkpc.diag -mGLOB_long_size_64 -mGLOB_routine_pointer_size_64 -mGLOB_source_language=GLOB_SOURCE_LANGUAGE_F90 -mP2OPT_static_promotion -mP1OPT_print_version=FALSE -mCG_use_gas_got_workaround=F -mP2OPT_align_option_used=TRUE -mGLOB_gcc_version=530 "-mGLOB_options_string=-o conftest -g -v" -mGLOB_cxx_limited_range=FALSE -mCG_extend_parms=FALSE -mGLOB_compiler_bin_directory=/turquoise/usr/projects/hpcsoft/toss3/common/intel-clusterstudio/2017.4.056/compilers_and_libraries_2017.4.196/linux/bin/intel64 -mP3OPT_emit_line_numbers -mP2OPT_suppress_unreferenced_locals=FALSE -mGLOB_debug_target=GLOB_DEBUG_TARGET_ALL -mDEBUG_info_level=2 -mDEBUG_use_indirect_strings=TRUE -mGLOB_debug_format=GLOB_DEBUG_FORMAT_DWARF40 -mGLOB_as_output_backup_file_name=/tmp/ifort0inoHqas_.s -mGLOB_dashboard_use_source_name -mGLOB_instruction_tuning=0x0 -mGLOB_uarch_tuning=0x0 -mGLOB_product_id_code=0x22006d8f -mGLOB_maintain_errno -mGLOB_noinline_intrinsics -mGLOB_use_base_pointer=1 -mCG_bnl_movbe=T -mGLOB_extended_instructions=0x8 -mP3OPT_use_mspp_call_convention -mP2OPT_subs_out_of_bound=FALSE -mP2OPT_disam_type_based_disam=2 -mGLOB_ansi_alias -mIPOPT_ninl_limit=0 -mIPOPT_ninl_user_level=0 -mPGOPTI_value_profile_use=T -mGLOB_opt_report_use_source_name -mP2OPT_gen_linux_const_pooling=FALSE -mP2OPT_il0_array_sections=TRUE -mGLOB_offload_mode=1 -mP2OPT_offload_unique_var_string=ifort1461110480nK6vN7 -mGLOB_opt_level=0 -mIPOPT_args_in_regs=0 -mP2OPT_disam_assume_nonstd_intent_in=FALSE -mGLOB_imf_mapping_library=/turquoise/usr/projects/hpcsoft/toss3/common/intel-clusterstudio/2017.4.056/compilers_and_libraries_2017.4.196/linux/bin/intel64/libiml_attr.so -mIPOPT_single_file_compile_and_link=TRUE -mP2OPT_hlo_embed_loopinfo -mPGOPTI_gen_threadsafe_level=0 -mIPOPT_lto_object_enabled -mIPOPT_lto_object_value=1 -mIPOPT_obj_output_file_name=/tmp/ifortvBvkpc.o -mIPOPT_whole_archive_fixup_file_name=/tmp/ifortwarchuKN00E -mGLOB_linker_version=2.25.1 -mGLOB_driver_tempfile_name=/tmp/iforttempfileTuv9ah -mP3OPT_asm_target=P3OPT_ASM_TARGET_GAS -mGLOB_async_unwind_tables=TRUE -mGLOB_obj_output_file=/tmp/ifortvBvkpc.o -mGLOB_source_dialect=GLOB_SOURCE_DIALECT_FORTRAN -mP1OPT_source_file_name=conftest.f -mP1OPT_full_source_file_name=/turquoise/users/wenyongp/seisDD/specfem2d/conftest.f -mP2OPT_symtab_type_copy=true conftest.f
#include "..." search starts here:
#include <...> search starts here:
 .
 /usr/projects/hpcsoft/toss3/grizzly/openmpi/2.1.2-intel-17.0.4/include
 /usr/projects/hpcsoft/toss3/common/intel-clusterstudio/2016.3.067/compilers_and_libraries_2016.3.210/linux/mkl/include
 /turquoise/usr/projects/hpcsoft/toss3/common/intel-clusterstudio/2017.4.056/compilers_and_libraries_2017.4.196/linux/compiler/include/intel64
 /turquoise/usr/projects/hpcsoft/toss3/common/intel-clusterstudio/2017.4.056/compilers_and_libraries_2017.4.196/linux/compiler/include/icc
 /turquoise/usr/projects/hpcsoft/toss3/common/intel-clusterstudio/2017.4.056/compilers_and_libraries_2017.4.196/linux/compiler/include
 /usr/local/include
 /turquoise/usr/projects/hpcsoft/toss3/common/gcc/5.3.0/bin/../lib/gcc/x86_64-unknown-linux-gnu/5.3.0/include
 /turquoise/usr/projects/hpcsoft/toss3/common/gcc/5.3.0/bin/../lib/gcc/x86_64-unknown-linux-gnu/5.3.0/include-fixed
 /turquoise/usr/projects/hpcsoft/toss3/common/gcc/5.3.0/bin/../include/
 /usr/include
End of search list.
ld    /lib/../lib64/crt1.o /lib/../lib64/crti.o /turquoise/usr/projects/hpcsoft/toss3/common/gcc/5.3.0/bin/../lib/gcc/x86_64-unknown-linux-gnu/5.3.0/crtbegin.o --eh-frame-hdr --build-id -dynamic-linker /lib64/ld-linux-x86-64.so.2 -m elf_x86_64 -o conftest /turquoise/usr/projects/hpcsoft/toss3/common/intel-clusterstudio/2017.4.056/compilers_and_libraries_2017.4.196/linux/compiler/lib/intel64_lin/for_main.o -L/usr/projects/hpcsoft/toss3/common/intel-clusterstudio/2016.3.067/compilers_and_libraries_2016/linux/mkl/lib/intel64 -L/turquoise/usr/projects/hpcsoft/toss3/common/intel-clusterstudio/2017.4.056/compilers_and_libraries_2017.4.196/linux/compiler/lib/intel64_lin -L/turquoise/usr/projects/hpcsoft/toss3/common/gcc/5.3.0/bin/../lib/gcc/x86_64-unknown-linux-gnu/5.3.0/ -L/turquoise/usr/projects/hpcsoft/toss3/common/gcc/5.3.0/bin/../lib/gcc/ -L/turquoise/usr/projects/hpcsoft/toss3/common/gcc/5.3.0/bin/../lib/gcc/x86_64-unknown-linux-gnu/5.3.0/../../../../lib64 -L/turquoise/usr/projects/hpcsoft/toss3/common/gcc/5.3.0/bin/../lib/gcc/x86_64-unknown-linux-gnu/5.3.0/../../../../lib64/ -L/lib/../lib64 -L/lib/../lib64/ -L/usr/lib/../lib64 -L/usr/lib/../lib64/ -L/usr/projects/hpcsoft/toss3/common/intel-clusterstudio/2016.3.067/compilers_and_libraries_2016/linux/mkl/lib/intel64/ -L/turquoise/usr/projects/hpcsoft/toss3/common/gcc/5.3.0/bin/../lib/gcc/x86_64-unknown-linux-gnu/5.3.0/../../../ -L/lib64 -L/lib/ -L/usr/lib64 -L/usr/lib /tmp/ifortvBvkpc.o -Bdynamic -Bstatic -lifport -lifcoremt -limf -lsvml -Bdynamic -lm -Bstatic -lipgo -lirc -Bdynamic -lpthread -Bstatic -lsvml -Bdynamic -lc -lgcc -lgcc_s -Bstatic -lirc_s -Bdynamic -ldl -lc /turquoise/usr/projects/hpcsoft/toss3/common/gcc/5.3.0/bin/../lib/gcc/x86_64-unknown-linux-gnu/5.3.0/crtend.o /lib/../lib64/crtn.o
configure:3457: result:  -L/usr/projects/hpcsoft/toss3/common/intel-clusterstudio/2016.3.067/compilers_and_libraries_2016/linux/mkl/lib/intel64 -L/turquoise/usr/projects/hpcsoft/toss3/common/intel-clusterstudio/2017.4.056/compilers_and_libraries_2017.4.196/linux/compiler/lib/intel64_lin -L/turquoise/usr/projects/hpcsoft/toss3/common/gcc/5.3.0/bin/../lib/gcc/x86_64-unknown-linux-gnu/5.3.0/ -L/turquoise/usr/projects/hpcsoft/toss3/common/gcc/5.3.0/bin/../lib/gcc/ -L/turquoise/usr/projects/hpcsoft/toss3/common/gcc/5.3.0/bin/../lib/gcc/x86_64-unknown-linux-gnu/5.3.0/../../../../lib64 -L/turquoise/usr/projects/hpcsoft/toss3/common/gcc/5.3.0/bin/../lib/gcc/x86_64-unknown-linux-gnu/5.3.0/../../../../lib64/ -L/lib/../lib64 -L/lib/../lib64/ -L/usr/lib/../lib64 -L/usr/lib/../lib64/ -L/usr/projects/hpcsoft/toss3/common/intel-clusterstudio/2016.3.067/compilers_and_libraries_2016/linux/mkl/lib/intel64/ -L/turquoise/usr/projects/hpcsoft/toss3/common/gcc/5.3.0/bin/../lib/gcc/x86_64-unknown-linux-gnu/5.3.0/../../../ -L/lib64 -L/lib/ -L/usr/lib64 -L/usr/lib -lifport -lifcoremt -limf -lsvml -lm -lipgo -lirc -lpthread -lirc_s -ldl
configure:3516: checking for gcc
configure:3543: result: /usr/projects/hpcsoft/toss3/common/intel-clusterstudio/2017.4.056/compilers_and_libraries_2017/linux/bin/intel64/icc
configure:3772: checking for C compiler version
configure:3781: /usr/projects/hpcsoft/toss3/common/intel-clusterstudio/2017.4.056/compilers_and_libraries_2017/linux/bin/intel64/icc --version >&5
icc (ICC) 17.0.4 20170411
Copyright (C) 1985-2017 Intel Corporation.  All rights reserved.

configure:3792: $? = 0
configure:3781: /usr/projects/hpcsoft/toss3/common/intel-clusterstudio/2017.4.056/compilers_and_libraries_2017/linux/bin/intel64/icc -v >&5
icc version 17.0.4 (gcc version 5.3.0 compatibility)
configure:3792: $? = 0
configure:3781: /usr/projects/hpcsoft/toss3/common/intel-clusterstudio/2017.4.056/compilers_and_libraries_2017/linux/bin/intel64/icc -V >&5
Intel(R) C Intel(R) 64 Compiler for applications running on Intel(R) 64, Version 17.0.4.196 Build 20170411
Copyright (C) 1985-2017 Intel Corporation.  All rights reserved.

configure:3792: $? = 0
configure:3781: /usr/projects/hpcsoft/toss3/common/intel-clusterstudio/2017.4.056/compilers_and_libraries_2017/linux/bin/intel64/icc -qversion >&5
icc: command line warning #10006: ignoring unknown option '-qversion'
icc: command line error: no files specified; for help type "icc -help"
configure:3792: $? = 1
configure:3796: checking whether we are using the GNU C compiler
configure:3823: /usr/projects/hpcsoft/toss3/common/intel-clusterstudio/2017.4.056/compilers_and_libraries_2017/linux/bin/intel64/icc -c   conftest.c >&5
configure:3823: $? = 0
configure:3832: result: yes
configure:3841: checking whether /usr/projects/hpcsoft/toss3/common/intel-clusterstudio/2017.4.056/compilers_and_libraries_2017/linux/bin/intel64/icc accepts -g
configure:3869: /usr/projects/hpcsoft/toss3/common/intel-clusterstudio/2017.4.056/compilers_and_libraries_2017/linux/bin/intel64/icc -c -g  conftest.c >&5
configure:3869: $? = 0
configure:3926: result: yes
configure:3943: checking for /usr/projects/hpcsoft/toss3/common/intel-clusterstudio/2017.4.056/compilers_and_libraries_2017/linux/bin/intel64/icc option to accept ISO C89
configure:4014: /usr/projects/hpcsoft/toss3/common/intel-clusterstudio/2017.4.056/compilers_and_libraries_2017/linux/bin/intel64/icc  -c -g -O2  conftest.c >&5
configure:4014: $? = 0
configure:4027: result: none needed
configure:4053: checking for dummy main to link with Fortran libraries
configure:4087: /usr/projects/hpcsoft/toss3/common/intel-clusterstudio/2017.4.056/compilers_and_libraries_2017/linux/bin/intel64/icc -o conftest -g -O2   conftest.c   -L/usr/projects/hpcsoft/toss3/common/intel-clusterstudio/2016.3.067/compilers_and_libraries_2016/linux/mkl/lib/intel64 -L/turquoise/usr/projects/hpcsoft/toss3/common/intel-clusterstudio/2017.4.056/compilers_and_libraries_2017.4.196/linux/compiler/lib/intel64_lin -L/turquoise/usr/projects/hpcsoft/toss3/common/gcc/5.3.0/bin/../lib/gcc/x86_64-unknown-linux-gnu/5.3.0/ -L/turquoise/usr/projects/hpcsoft/toss3/common/gcc/5.3.0/bin/../lib/gcc/ -L/turquoise/usr/projects/hpcsoft/toss3/common/gcc/5.3.0/bin/../lib/gcc/x86_64-unknown-linux-gnu/5.3.0/../../../../lib64 -L/turquoise/usr/projects/hpcsoft/toss3/common/gcc/5.3.0/bin/../lib/gcc/x86_64-unknown-linux-gnu/5.3.0/../../../../lib64/ -L/lib/../lib64 -L/lib/../lib64/ -L/usr/lib/../lib64 -L/usr/lib/../lib64/ -L/usr/projects/hpcsoft/toss3/common/intel-clusterstudio/2016.3.067/compilers_and_libraries_2016/linux/mkl/lib/intel64/ -L/turquoise/usr/projects/hpcsoft/toss3/common/gcc/5.3.0/bin/../lib/gcc/x86_64-unknown-linux-gnu/5.3.0/../../../ -L/lib64 -L/lib/ -L/usr/lib64 -L/usr/lib -lifport -lifcoremt -limf -lsvml -lm -lipgo -lirc -lpthread -lirc_s -ldl >&5
configure:4087: $? = 0
configure:4132: result: none
configure:4165: checking for Fortran name-mangling scheme
configure:4178: ifort -c -g  conftest.f >&5
configure:4178: $? = 0
configure:4219: /usr/projects/hpcsoft/toss3/common/intel-clusterstudio/2017.4.056/compilers_and_libraries_2017/linux/bin/intel64/icc -o conftest -g -O2   conftest.c cfortran_test.o   -L/usr/projects/hpcsoft/toss3/common/intel-clusterstudio/2016.3.067/compilers_and_libraries_2016/linux/mkl/lib/intel64 -L/turquoise/usr/projects/hpcsoft/toss3/common/intel-clusterstudio/2017.4.056/compilers_and_libraries_2017.4.196/linux/compiler/lib/intel64_lin -L/turquoise/usr/projects/hpcsoft/toss3/common/gcc/5.3.0/bin/../lib/gcc/x86_64-unknown-linux-gnu/5.3.0/ -L/turquoise/usr/projects/hpcsoft/toss3/common/gcc/5.3.0/bin/../lib/gcc/ -L/turquoise/usr/projects/hpcsoft/toss3/common/gcc/5.3.0/bin/../lib/gcc/x86_64-unknown-linux-gnu/5.3.0/../../../../lib64 -L/turquoise/usr/projects/hpcsoft/toss3/common/gcc/5.3.0/bin/../lib/gcc/x86_64-unknown-linux-gnu/5.3.0/../../../../lib64/ -L/lib/../lib64 -L/lib/../lib64/ -L/usr/lib/../lib64 -L/usr/lib/../lib64/ -L/usr/projects/hpcsoft/toss3/common/intel-clusterstudio/2016.3.067/compilers_and_libraries_2016/linux/mkl/lib/intel64/ -L/turquoise/usr/projects/hpcsoft/toss3/common/gcc/5.3.0/bin/../lib/gcc/x86_64-unknown-linux-gnu/5.3.0/../../../ -L/lib64 -L/lib/ -L/usr/lib64 -L/usr/lib -lifport -lifcoremt -limf -lsvml -lm -lipgo -lirc -lpthread -lirc_s -ldl >&5
/tmp/iccVsqoyg.o: In function `main':
/turquoise/users/wenyongp/seisDD/specfem2d/conftest.c:28: undefined reference to `foobar'
configure:4219: $? = 1
configure: failed program was:
| /* confdefs.h */
| #define PACKAGE_NAME "Specfem 2D"
| #define PACKAGE_TARNAME "Specfem2D"
| #define PACKAGE_VERSION "7.0.0"
| #define PACKAGE_STRING "Specfem 2D 7.0.0"
| #define PACKAGE_BUGREPORT "see the wiki"
| #define PACKAGE_URL ""
| /* end confdefs.h.  */
| 
| /* Override any GCC internal prototype to avoid an error.
|    Use char because int might match the return type of a GCC
|    builtin and then its argument prototype would still apply.  */
| #ifdef __cplusplus
| extern "C"
| #endif
| char foobar ();
| #ifdef FC_DUMMY_MAIN
| #ifndef FC_DUMMY_MAIN_EQ_F77
| #  ifdef __cplusplus
|      extern "C"
| #  endif
|    int FC_DUMMY_MAIN() { return 1; }
| #endif
| #endif
| int
| main ()
| {
| return foobar ();
|   ;
|   return 0;
| }
configure:4219: /usr/projects/hpcsoft/toss3/common/intel-clusterstudio/2017.4.056/compilers_and_libraries_2017/linux/bin/intel64/icc -o conftest -g -O2   conftest.c cfortran_test.o   -L/usr/projects/hpcsoft/toss3/common/intel-clusterstudio/2016.3.067/compilers_and_libraries_2016/linux/mkl/lib/intel64 -L/turquoise/usr/projects/hpcsoft/toss3/common/intel-clusterstudio/2017.4.056/compilers_and_libraries_2017.4.196/linux/compiler/lib/intel64_lin -L/turquoise/usr/projects/hpcsoft/toss3/common/gcc/5.3.0/bin/../lib/gcc/x86_64-unknown-linux-gnu/5.3.0/ -L/turquoise/usr/projects/hpcsoft/toss3/common/gcc/5.3.0/bin/../lib/gcc/ -L/turquoise/usr/projects/hpcsoft/toss3/common/gcc/5.3.0/bin/../lib/gcc/x86_64-unknown-linux-gnu/5.3.0/../../../../lib64 -L/turquoise/usr/projects/hpcsoft/toss3/common/gcc/5.3.0/bin/../lib/gcc/x86_64-unknown-linux-gnu/5.3.0/../../../../lib64/ -L/lib/../lib64 -L/lib/../lib64/ -L/usr/lib/../lib64 -L/usr/lib/../lib64/ -L/usr/projects/hpcsoft/toss3/common/intel-clusterstudio/2016.3.067/compilers_and_libraries_2016/linux/mkl/lib/intel64/ -L/turquoise/usr/projects/hpcsoft/toss3/common/gcc/5.3.0/bin/../lib/gcc/x86_64-unknown-linux-gnu/5.3.0/../../../ -L/lib64 -L/lib/ -L/usr/lib64 -L/usr/lib -lifport -lifcoremt -limf -lsvml -lm -lipgo -lirc -lpthread -lirc_s -ldl >&5
configure:4219: $? = 0
configure:4277: /usr/projects/hpcsoft/toss3/common/intel-clusterstudio/2017.4.056/compilers_and_libraries_2017/linux/bin/intel64/icc -o conftest -g -O2   conftest.c cfortran_test.o   -L/usr/projects/hpcsoft/toss3/common/intel-clusterstudio/2016.3.067/compilers_and_libraries_2016/linux/mkl/lib/intel64 -L/turquoise/usr/projects/hpcsoft/toss3/common/intel-clusterstudio/2017.4.056/compilers_and_libraries_2017.4.196/linux/compiler/lib/intel64_lin -L/turquoise/usr/projects/hpcsoft/toss3/common/gcc/5.3.0/bin/../lib/gcc/x86_64-unknown-linux-gnu/5.3.0/ -L/turquoise/usr/projects/hpcsoft/toss3/common/gcc/5.3.0/bin/../lib/gcc/ -L/turquoise/usr/projects/hpcsoft/toss3/common/gcc/5.3.0/bin/../lib/gcc/x86_64-unknown-linux-gnu/5.3.0/../../../../lib64 -L/turquoise/usr/projects/hpcsoft/toss3/common/gcc/5.3.0/bin/../lib/gcc/x86_64-unknown-linux-gnu/5.3.0/../../../../lib64/ -L/lib/../lib64 -L/lib/../lib64/ -L/usr/lib/../lib64 -L/usr/lib/../lib64/ -L/usr/projects/hpcsoft/toss3/common/intel-clusterstudio/2016.3.067/compilers_and_libraries_2016/linux/mkl/lib/intel64/ -L/turquoise/usr/projects/hpcsoft/toss3/common/gcc/5.3.0/bin/../lib/gcc/x86_64-unknown-linux-gnu/5.3.0/../../../ -L/lib64 -L/lib/ -L/usr/lib64 -L/usr/lib -lifport -lifcoremt -limf -lsvml -lm -lipgo -lirc -lpthread -lirc_s -ldl >&5
configure:4277: $? = 0
configure:4319: result: lower case, underscore, no extra underscore
configure:4394: checking for Fortran flag to compile .f90 files
configure:4414: ifort -c -g  conftest.f90 >&5
configure:4414: $? = 0
configure:4423: result: none
configure:4448: checking for Fortran flag needed to accept free-form source
configure:4467: ifort -c -g  conftest.f90 >&5
configure:4467: $? = 0
configure:4476: result: none
configure:4501: checking for Fortran flag to compile preprocessed .F files
configure:4526: ifort -c -g  conftest.F >&5
configure:4526: $? = 0
configure:4536: ifort -c -g  conftest.F >&5
conftest.F(4): #error: can't find include file: ac_nonexistent.h
configure:4536: $? = 1
configure: failed program was:
|       program main
| 
| #if 1
| #include <ac_nonexistent.h>
|       choke me
| #endif
|       end
configure:4549: result: none
configure:4570: checking how to define symbols for preprocessed Fortran
configure:4592: ifort -c -g -DFOOBAR -DZORK=42  conftest.F >&5
configure:4592: $? = 0
configure:4601: result: -D
configure:4621: checking for Fortran flag to compile preprocessed .F90 files
configure:4646: ifort -c -g  conftest.F90 >&5
configure:4646: $? = 0
configure:4656: ifort -c -g  conftest.F90 >&5
conftest.F90(4): #error: can't find include file: ac_nonexistent.h
configure:4656: $? = 1
configure: failed program was:
|       program main
| 
| #if 1
| #include <ac_nonexistent.h>
|       choke me
| #endif
|       end
configure:4669: result: none
configure:4738: checking for gcc
configure:4765: result: /usr/projects/hpcsoft/toss3/common/intel-clusterstudio/2017.4.056/compilers_and_libraries_2017/linux/bin/intel64/icc
configure:4994: checking for C compiler version
configure:5003: /usr/projects/hpcsoft/toss3/common/intel-clusterstudio/2017.4.056/compilers_and_libraries_2017/linux/bin/intel64/icc --version >&5
icc (ICC) 17.0.4 20170411
Copyright (C) 1985-2017 Intel Corporation.  All rights reserved.

configure:5014: $? = 0
configure:5003: /usr/projects/hpcsoft/toss3/common/intel-clusterstudio/2017.4.056/compilers_and_libraries_2017/linux/bin/intel64/icc -v >&5
icc version 17.0.4 (gcc version 5.3.0 compatibility)
configure:5014: $? = 0
configure:5003: /usr/projects/hpcsoft/toss3/common/intel-clusterstudio/2017.4.056/compilers_and_libraries_2017/linux/bin/intel64/icc -V >&5
Intel(R) C Intel(R) 64 Compiler for applications running on Intel(R) 64, Version 17.0.4.196 Build 20170411
Copyright (C) 1985-2017 Intel Corporation.  All rights reserved.

configure:5014: $? = 0
configure:5003: /usr/projects/hpcsoft/toss3/common/intel-clusterstudio/2017.4.056/compilers_and_libraries_2017/linux/bin/intel64/icc -qversion >&5
icc: command line warning #10006: ignoring unknown option '-qversion'
icc: command line error: no files specified; for help type "icc -help"
configure:5014: $? = 1
configure:5018: checking whether we are using the GNU C compiler
configure:5054: result: yes
configure:5063: checking whether /usr/projects/hpcsoft/toss3/common/intel-clusterstudio/2017.4.056/compilers_and_libraries_2017/linux/bin/intel64/icc accepts -g
configure:5148: result: yes
configure:5165: checking for /usr/projects/hpcsoft/toss3/common/intel-clusterstudio/2017.4.056/compilers_and_libraries_2017/linux/bin/intel64/icc option to accept ISO C89
configure:5249: result: none needed
configure:5280: checking how to run the C preprocessor
configure:5311: /usr/projects/hpcsoft/toss3/common/intel-clusterstudio/2017.4.056/compilers_and_libraries_2017/linux/bin/intel64/icc -E  conftest.c
configure:5311: $? = 0
configure:5325: /usr/projects/hpcsoft/toss3/common/intel-clusterstudio/2017.4.056/compilers_and_libraries_2017/linux/bin/intel64/icc -E  conftest.c
conftest.c(11): error #2379: cannot open source file "ac_nonexistent.h"
  #include <ac_nonexistent.h>
                             ^

configure:5325: $? = 2
configure: failed program was:
| /* confdefs.h */
| #define PACKAGE_NAME "Specfem 2D"
| #define PACKAGE_TARNAME "Specfem2D"
| #define PACKAGE_VERSION "7.0.0"
| #define PACKAGE_STRING "Specfem 2D 7.0.0"
| #define PACKAGE_BUGREPORT "see the wiki"
| #define PACKAGE_URL ""
| #define FC_FUNC(name,NAME) name ## _
| #define FC_FUNC_(name,NAME) name ## _
| /* end confdefs.h.  */
| #include <ac_nonexistent.h>
configure:5350: result: /usr/projects/hpcsoft/toss3/common/intel-clusterstudio/2017.4.056/compilers_and_libraries_2017/linux/bin/intel64/icc -E
configure:5370: /usr/projects/hpcsoft/toss3/common/intel-clusterstudio/2017.4.056/compilers_and_libraries_2017/linux/bin/intel64/icc -E  conftest.c
configure:5370: $? = 0
configure:5384: /usr/projects/hpcsoft/toss3/common/intel-clusterstudio/2017.4.056/compilers_and_libraries_2017/linux/bin/intel64/icc -E  conftest.c
conftest.c(11): error #2379: cannot open source file "ac_nonexistent.h"
  #include <ac_nonexistent.h>
                             ^

configure:5384: $? = 2
configure: failed program was:
| /* confdefs.h */
| #define PACKAGE_NAME "Specfem 2D"
| #define PACKAGE_TARNAME "Specfem2D"
| #define PACKAGE_VERSION "7.0.0"
| #define PACKAGE_STRING "Specfem 2D 7.0.0"
| #define PACKAGE_BUGREPORT "see the wiki"
| #define PACKAGE_URL ""
| #define FC_FUNC(name,NAME) name ## _
| #define FC_FUNC_(name,NAME) name ## _
| /* end confdefs.h.  */
| #include <ac_nonexistent.h>
configure:5413: checking for grep that handles long lines and -e
configure:5471: result: /usr/bin/grep
configure:5476: checking for egrep
configure:5538: result: /usr/bin/grep -E
configure:5543: checking for ANSI C header files
configure:5571: /usr/projects/hpcsoft/toss3/common/intel-clusterstudio/2017.4.056/compilers_and_libraries_2017/linux/bin/intel64/icc -c -g -O2  conftest.c >&5
configure:5571: $? = 0
configure:5644: /usr/projects/hpcsoft/toss3/common/intel-clusterstudio/2017.4.056/compilers_and_libraries_2017/linux/bin/intel64/icc -o conftest -g -O2   conftest.c  >&5
configure:5644: $? = 0
configure:5644: ./conftest
configure:5644: $? = 0
configure:5655: result: yes
configure:5668: checking for sys/types.h
configure:5668: /usr/projects/hpcsoft/toss3/common/intel-clusterstudio/2017.4.056/compilers_and_libraries_2017/linux/bin/intel64/icc -c -g -O2  conftest.c >&5
configure:5668: $? = 0
configure:5668: result: yes
configure:5668: checking for sys/stat.h
configure:5668: /usr/projects/hpcsoft/toss3/common/intel-clusterstudio/2017.4.056/compilers_and_libraries_2017/linux/bin/intel64/icc -c -g -O2  conftest.c >&5
configure:5668: $? = 0
configure:5668: result: yes
configure:5668: checking for stdlib.h
configure:5668: /usr/projects/hpcsoft/toss3/common/intel-clusterstudio/2017.4.056/compilers_and_libraries_2017/linux/bin/intel64/icc -c -g -O2  conftest.c >&5
configure:5668: $? = 0
configure:5668: result: yes
configure:5668: checking for string.h
configure:5668: /usr/projects/hpcsoft/toss3/common/intel-clusterstudio/2017.4.056/compilers_and_libraries_2017/linux/bin/intel64/icc -c -g -O2  conftest.c >&5
configure:5668: $? = 0
configure:5668: result: yes
configure:5668: checking for memory.h
configure:5668: /usr/projects/hpcsoft/toss3/common/intel-clusterstudio/2017.4.056/compilers_and_libraries_2017/linux/bin/intel64/icc -c -g -O2  conftest.c >&5
configure:5668: $? = 0
configure:5668: result: yes
configure:5668: checking for strings.h
configure:5668: /usr/projects/hpcsoft/toss3/common/intel-clusterstudio/2017.4.056/compilers_and_libraries_2017/linux/bin/intel64/icc -c -g -O2  conftest.c >&5
configure:5668: $? = 0
configure:5668: result: yes
configure:5668: checking for inttypes.h
configure:5668: /usr/projects/hpcsoft/toss3/common/intel-clusterstudio/2017.4.056/compilers_and_libraries_2017/linux/bin/intel64/icc -c -g -O2  conftest.c >&5
configure:5668: $? = 0
configure:5668: result: yes
configure:5668: checking for stdint.h
configure:5668: /usr/projects/hpcsoft/toss3/common/intel-clusterstudio/2017.4.056/compilers_and_libraries_2017/linux/bin/intel64/icc -c -g -O2  conftest.c >&5
configure:5668: $? = 0
configure:5668: result: yes
configure:5668: checking for unistd.h
configure:5668: /usr/projects/hpcsoft/toss3/common/intel-clusterstudio/2017.4.056/compilers_and_libraries_2017/linux/bin/intel64/icc -c -g -O2  conftest.c >&5
configure:5668: $? = 0
configure:5668: result: yes
configure:5680: checking emmintrin.h usability
configure:5680: /usr/projects/hpcsoft/toss3/common/intel-clusterstudio/2017.4.056/compilers_and_libraries_2017/linux/bin/intel64/icc -c -g -O2  conftest.c >&5
configure:5680: $? = 0
configure:5680: result: yes
configure:5680: checking emmintrin.h presence
configure:5680: /usr/projects/hpcsoft/toss3/common/intel-clusterstudio/2017.4.056/compilers_and_libraries_2017/linux/bin/intel64/icc -E  conftest.c
configure:5680: $? = 0
configure:5680: result: yes
configure:5680: checking for emmintrin.h
configure:5680: result: yes
configure:5688: checking xmmintrin.h usability
configure:5688: /usr/projects/hpcsoft/toss3/common/intel-clusterstudio/2017.4.056/compilers_and_libraries_2017/linux/bin/intel64/icc -c -g -O2  conftest.c >&5
configure:5688: $? = 0
configure:5688: result: yes
configure:5688: checking xmmintrin.h presence
configure:5688: /usr/projects/hpcsoft/toss3/common/intel-clusterstudio/2017.4.056/compilers_and_libraries_2017/linux/bin/intel64/icc -E  conftest.c
configure:5688: $? = 0
configure:5688: result: yes
configure:5688: checking for xmmintrin.h
configure:5688: result: yes
configure:5697: checking err.h usability
configure:5697: /usr/projects/hpcsoft/toss3/common/intel-clusterstudio/2017.4.056/compilers_and_libraries_2017/linux/bin/intel64/icc -c -g -O2  conftest.c >&5
configure:5697: $? = 0
configure:5697: result: yes
configure:5697: checking err.h presence
configure:5697: /usr/projects/hpcsoft/toss3/common/intel-clusterstudio/2017.4.056/compilers_and_libraries_2017/linux/bin/intel64/icc -E  conftest.c
configure:5697: $? = 0
configure:5697: result: yes
configure:5697: checking for err.h
configure:5697: result: yes
configure:5774: checking for scotchfarchinit  in -lscotch
configure:5786: ifort -o conftest -g  -L./src/meshfem2D/scotch_6.0.4/lib  conftest.F90 -lscotch -lscotcherr  >&5
configure:5786: $? = 0
configure:5795: result: yes
configure:5816: checking whether Scotch is usable
configure:5826: result: yes
configure:6476: checking Fortran 90 module extension
configure:6498: ifort -c -g  conftest.F90 >&5
configure:6498: $? = 0
configure:6514: result: mod
configure:6523: checking Fortran 90 module inclusion flag
configure:6545: ifort -c -g  conftest.F90 >&5
configure:6545: $? = 0
configure:6559: ifort -c -g -Mconftest.dir -Mconftest.dir  conftest.F90 >&5
ifort: command line warning #10006: ignoring unknown option '-Mconftest.dir'
ifort: command line warning #10006: ignoring unknown option '-Mconftest.dir'
conftest.F90(3): error #7002: Error in opening the compiled module file.  Check INCLUDE paths.   [CONFTEST_MODULE]
      use conftest_module
----------^
compilation aborted for conftest.F90 (code 1)
configure:6559: $? = 1
configure: failed program was:
| 
|       program main
|       use conftest_module
|       call conftest_routine
|       end program
configure:6559: ifort -c -g -Iconftest.dir -Iconftest.dir  conftest.F90 >&5
configure:6559: $? = 0
configure:6579: result: -I
configure:6594: checking Fortran 90 module output flag
configure:6622: ifort -c -g -Jsub  conftest.F90 >&5
ifort: command line warning #10006: ignoring unknown option '-Jsub'
configure:6622: $? = 0
configure:6631: ifort -c -g -Jsub  conftest.F90 >&5
ifort: command line warning #10006: ignoring unknown option '-Jsub'
conftest.F90(3): error #7002: Error in opening the compiled module file.  Check INCLUDE paths.   [CONFTEST_MODULE]
      use conftest_module
----------^
compilation aborted for conftest.F90 (code 1)
configure:6631: $? = 1
configure: failed program was:
| 
|       program main
|       use conftest_module
|       call conftest_routine
|       end program
configure:6622: ifort -c -g -J sub  conftest.F90 >&5
ifort: command line warning #10006: ignoring unknown option '-J'
ifort: warning #10145: no action performed for file 'sub'
configure:6622: $? = 0
configure:6631: ifort -c -g -J sub  conftest.F90 >&5
ifort: command line warning #10006: ignoring unknown option '-J'
ifort: error #10236: File not found:  'sub'
conftest.F90(3): error #7002: Error in opening the compiled module file.  Check INCLUDE paths.   [CONFTEST_MODULE]
      use conftest_module
----------^
compilation aborted for conftest.F90 (code 1)
configure:6631: $? = 1
configure: failed program was:
| 
|       program main
|       use conftest_module
|       call conftest_routine
|       end program
configure:6622: ifort -c -g -fmod=sub  conftest.F90 >&5
ifort: command line warning #10006: ignoring unknown option '-fmod=sub'
configure:6622: $? = 0
configure:6631: ifort -c -g -fmod=sub  conftest.F90 >&5
ifort: command line warning #10006: ignoring unknown option '-fmod=sub'
conftest.F90(3): error #7002: Error in opening the compiled module file.  Check INCLUDE paths.   [CONFTEST_MODULE]
      use conftest_module
----------^
compilation aborted for conftest.F90 (code 1)
configure:6631: $? = 1
configure: failed program was:
| 
|       program main
|       use conftest_module
|       call conftest_routine
|       end program
configure:6622: ifort -c -g -moddir=sub  conftest.F90 >&5
ifort: command line warning #10159: invalid argument for option '-m'
configure:6622: $? = 0
configure:6631: ifort -c -g -moddir=sub  conftest.F90 >&5
ifort: command line warning #10159: invalid argument for option '-m'
conftest.F90(3): error #7002: Error in opening the compiled module file.  Check INCLUDE paths.   [CONFTEST_MODULE]
      use conftest_module
----------^
compilation aborted for conftest.F90 (code 1)
configure:6631: $? = 1
configure: failed program was:
| 
|       program main
|       use conftest_module
|       call conftest_routine
|       end program
configure:6622: ifort -c -g +moddir=sub  conftest.F90 >&5
ifort: error #10236: File not found:  '+moddir=sub'
configure:6622: $? = 1
configure: failed program was:
| 
|       module conftest_module
|       contains
|       subroutine conftest_routine
|       write(*,'(a)') 'gotcha!'
|       end subroutine
|       end module
configure:6622: ifort -c -g -qmoddir=sub  conftest.F90 >&5
ifort: command line warning #10006: ignoring unknown option '-qmoddir=sub'
configure:6622: $? = 0
configure:6631: ifort -c -g -qmoddir=sub  conftest.F90 >&5
ifort: command line warning #10006: ignoring unknown option '-qmoddir=sub'
conftest.F90(3): error #7002: Error in opening the compiled module file.  Check INCLUDE paths.   [CONFTEST_MODULE]
      use conftest_module
----------^
compilation aborted for conftest.F90 (code 1)
configure:6631: $? = 1
configure: failed program was:
| 
|       program main
|       use conftest_module
|       call conftest_routine
|       end program
configure:6622: ifort -c -g -mod sub  conftest.F90 >&5
configure:6622: $? = 0
configure:6631: ifort -c -g -mod sub  conftest.F90 >&5
configure:6631: $? = 0
configure:6652: result: -mod 
configure:6792: checking for C++ compiler version
configure:6801: /usr/projects/hpcsoft/toss3/common/intel-clusterstudio/2017.4.056/compilers_and_libraries_2017/linux/bin/intel64/icpc --version >&5
icpc (ICC) 17.0.4 20170411
Copyright (C) 1985-2017 Intel Corporation.  All rights reserved.

configure:6812: $? = 0
configure:6801: /usr/projects/hpcsoft/toss3/common/intel-clusterstudio/2017.4.056/compilers_and_libraries_2017/linux/bin/intel64/icpc -v >&5
icpc version 17.0.4 (gcc version 5.3.0 compatibility)
configure:6812: $? = 0
configure:6801: /usr/projects/hpcsoft/toss3/common/intel-clusterstudio/2017.4.056/compilers_and_libraries_2017/linux/bin/intel64/icpc -V >&5
Intel(R) C++ Intel(R) 64 Compiler for applications running on Intel(R) 64, Version 17.0.4.196 Build 20170411
Copyright (C) 1985-2017 Intel Corporation.  All rights reserved.

configure:6812: $? = 0
configure:6801: /usr/projects/hpcsoft/toss3/common/intel-clusterstudio/2017.4.056/compilers_and_libraries_2017/linux/bin/intel64/icpc -qversion >&5
icpc: command line warning #10006: ignoring unknown option '-qversion'
icpc: command line error: no files specified; for help type "icpc -help"
configure:6812: $? = 1
configure:6816: checking whether we are using the GNU C++ compiler
configure:6843: /usr/projects/hpcsoft/toss3/common/intel-clusterstudio/2017.4.056/compilers_and_libraries_2017/linux/bin/intel64/icpc -c   conftest.cpp >&5
configure:6843: $? = 0
configure:6852: result: yes
configure:6861: checking whether /usr/projects/hpcsoft/toss3/common/intel-clusterstudio/2017.4.056/compilers_and_libraries_2017/linux/bin/intel64/icpc accepts -g
configure:6889: /usr/projects/hpcsoft/toss3/common/intel-clusterstudio/2017.4.056/compilers_and_libraries_2017/linux/bin/intel64/icpc -c -g  conftest.cpp >&5
configure:6889: $? = 0
configure:6946: result: yes
configure:6975: checking how to run the C++ preprocessor
configure:7002: /usr/projects/hpcsoft/toss3/common/intel-clusterstudio/2017.4.056/compilers_and_libraries_2017/linux/bin/intel64/icpc -E  conftest.cpp
configure:7002: $? = 0
configure:7016: /usr/projects/hpcsoft/toss3/common/intel-clusterstudio/2017.4.056/compilers_and_libraries_2017/linux/bin/intel64/icpc -E  conftest.cpp
conftest.cpp(25): error #2379: cannot open source file "ac_nonexistent.h"
  #include <ac_nonexistent.h>
                             ^

configure:7016: $? = 2
configure: failed program was:
| /* confdefs.h */
| #define PACKAGE_NAME "Specfem 2D"
| #define PACKAGE_TARNAME "Specfem2D"
| #define PACKAGE_VERSION "7.0.0"
| #define PACKAGE_STRING "Specfem 2D 7.0.0"
| #define PACKAGE_BUGREPORT "see the wiki"
| #define PACKAGE_URL ""
| #define FC_FUNC(name,NAME) name ## _
| #define FC_FUNC_(name,NAME) name ## _
| #define STDC_HEADERS 1
| #define HAVE_SYS_TYPES_H 1
| #define HAVE_SYS_STAT_H 1
| #define HAVE_STDLIB_H 1
| #define HAVE_STRING_H 1
| #define HAVE_MEMORY_H 1
| #define HAVE_STRINGS_H 1
| #define HAVE_INTTYPES_H 1
| #define HAVE_STDINT_H 1
| #define HAVE_UNISTD_H 1
| #define HAVE_EMMINTRIN 1
| #define HAVE_XMMINTRIN 1
| #define HAVE_ERR 1
| #define HAVE_SCOTCH 1
| /* end confdefs.h.  */
| #include <ac_nonexistent.h>
configure:7041: result: /usr/projects/hpcsoft/toss3/common/intel-clusterstudio/2017.4.056/compilers_and_libraries_2017/linux/bin/intel64/icpc -E
configure:7061: /usr/projects/hpcsoft/toss3/common/intel-clusterstudio/2017.4.056/compilers_and_libraries_2017/linux/bin/intel64/icpc -E  conftest.cpp
configure:7061: $? = 0
configure:7075: /usr/projects/hpcsoft/toss3/common/intel-clusterstudio/2017.4.056/compilers_and_libraries_2017/linux/bin/intel64/icpc -E  conftest.cpp
conftest.cpp(25): error #2379: cannot open source file "ac_nonexistent.h"
  #include <ac_nonexistent.h>
                             ^

configure:7075: $? = 2
configure: failed program was:
| /* confdefs.h */
| #define PACKAGE_NAME "Specfem 2D"
| #define PACKAGE_TARNAME "Specfem2D"
| #define PACKAGE_VERSION "7.0.0"
| #define PACKAGE_STRING "Specfem 2D 7.0.0"
| #define PACKAGE_BUGREPORT "see the wiki"
| #define PACKAGE_URL ""
| #define FC_FUNC(name,NAME) name ## _
| #define FC_FUNC_(name,NAME) name ## _
| #define STDC_HEADERS 1
| #define HAVE_SYS_TYPES_H 1
| #define HAVE_SYS_STAT_H 1
| #define HAVE_STDLIB_H 1
| #define HAVE_STRING_H 1
| #define HAVE_MEMORY_H 1
| #define HAVE_STRINGS_H 1
| #define HAVE_INTTYPES_H 1
| #define HAVE_STDINT_H 1
| #define HAVE_UNISTD_H 1
| #define HAVE_EMMINTRIN 1
| #define HAVE_XMMINTRIN 1
| #define HAVE_ERR 1
| #define HAVE_SCOTCH 1
| /* end confdefs.h.  */
| #include <ac_nonexistent.h>
configure:7130: checking mpi.h usability
configure:7130: /usr/projects/hpcsoft/toss3/common/intel-clusterstudio/2017.4.056/compilers_and_libraries_2017/linux/bin/intel64/icpc -c -g -O2  -I/usr/projects/hpcsoft/toss3/grizzly/openmpi/2.1.2-intel-17.0.4/include  conftest.cpp >&5
configure:7130: $? = 0
configure:7130: result: yes
configure:7130: checking mpi.h presence
configure:7130: /usr/projects/hpcsoft/toss3/common/intel-clusterstudio/2017.4.056/compilers_and_libraries_2017/linux/bin/intel64/icpc -E  -I/usr/projects/hpcsoft/toss3/grizzly/openmpi/2.1.2-intel-17.0.4/include  conftest.cpp
configure:7130: $? = 0
configure:7130: result: yes
configure:7130: checking for mpi.h
configure:7130: result: yes
configure:7597: creating ./config.status

## ---------------------- ##
## Running config.status. ##
## ---------------------- ##

This file was extended by Specfem 2D config.status 7.0.0, which was
generated by GNU Autoconf 2.69.  Invocation command line was

  CONFIG_FILES    = 
  CONFIG_HEADERS  = 
  CONFIG_LINKS    = 
  CONFIG_COMMANDS = 
  $ ./config.status 

on gr-fe1.lanl.gov

config.status:892: creating Makefile
config.status:892: creating setup/constants.h
config.status:892: creating setup/precision.h
config.status:892: creating setup/config.h
config.status:1062: setup/config.h is unchanged
config.status:1076: executing bin commands
config.status:1076: executing obj commands
config.status:1076: executing OUTPUT_FILES commands
configure:8777: result: 
configure:8782: result: 
configure:8784: result: ./configure has completed and set up a default configuration to build.
configure:8786: result: 
configure:8788: result: You may wish to modify the following files before running a simulation:
configure:8790: result:   DATA/Par_file           Set parameters affecting the simulation.
configure:8792: result:   DATA/SOURCE             Set the source parameters before running the solver.
configure:8794: result: 

## ---------------- ##
## Cache variables. ##
## ---------------- ##

ac_cv_build=x86_64-unknown-linux-gnu
ac_cv_c_compiler_gnu=yes
ac_cv_cxx_compiler_gnu=yes
ac_cv_env_CCC_set=
ac_cv_env_CCC_value=
ac_cv_env_CC_set=set
ac_cv_env_CC_value=/usr/projects/hpcsoft/toss3/common/intel-clusterstudio/2017.4.056/compilers_and_libraries_2017/linux/bin/intel64/icc
ac_cv_env_CFLAGS_set=
ac_cv_env_CFLAGS_value=
ac_cv_env_CPPFLAGS_set=
ac_cv_env_CPPFLAGS_value=
ac_cv_env_CPP_set=
ac_cv_env_CPP_value=
ac_cv_env_CUDA_FLAGS_set=
ac_cv_env_CUDA_FLAGS_value=
ac_cv_env_CUDA_INC_set=
ac_cv_env_CUDA_INC_value=
ac_cv_env_CUDA_LIB_set=
ac_cv_env_CUDA_LIB_value=
ac_cv_env_CXXCPP_set=
ac_cv_env_CXXCPP_value=
ac_cv_env_CXXFLAGS_set=
ac_cv_env_CXXFLAGS_value=
ac_cv_env_CXX_set=set
ac_cv_env_CXX_value=/usr/projects/hpcsoft/toss3/common/intel-clusterstudio/2017.4.056/compilers_and_libraries_2017/linux/bin/intel64/icpc
ac_cv_env_FCFLAGS_set=
ac_cv_env_FCFLAGS_value=
ac_cv_env_FC_set=set
ac_cv_env_FC_value=ifort
ac_cv_env_FLAGS_CHECK_set=
ac_cv_env_FLAGS_CHECK_value=
ac_cv_env_LDFLAGS_set=
ac_cv_env_LDFLAGS_value=
ac_cv_env_LIBS_set=
ac_cv_env_LIBS_value=
ac_cv_env_LOCAL_PATH_IS_ALSO_GLOBAL_set=
ac_cv_env_LOCAL_PATH_IS_ALSO_GLOBAL_value=
ac_cv_env_MPICC_set=
ac_cv_env_MPICC_value=
ac_cv_env_MPIFC_set=set
ac_cv_env_MPIFC_value=mpif90
ac_cv_env_MPILIBS_set=
ac_cv_env_MPILIBS_value=
ac_cv_env_MPI_INC_set=
ac_cv_env_MPI_INC_value=
ac_cv_env_NVCC_set=
ac_cv_env_NVCC_value=
ac_cv_env_SCOTCH_DIR_set=
ac_cv_env_SCOTCH_DIR_value=
ac_cv_env_SCOTCH_INCLUDEDIR_set=
ac_cv_env_SCOTCH_INCLUDEDIR_value=
ac_cv_env_SCOTCH_LIBDIR_set=
ac_cv_env_SCOTCH_LIBDIR_value=
ac_cv_env_USE_BUNDLED_SCOTCH_set=
ac_cv_env_USE_BUNDLED_SCOTCH_value=
ac_cv_env_YACC_set=
ac_cv_env_YACC_value=
ac_cv_env_YFLAGS_set=
ac_cv_env_YFLAGS_value=
ac_cv_env_build_alias_set=
ac_cv_env_build_alias_value=
ac_cv_env_host_alias_set=
ac_cv_env_host_alias_value=
ac_cv_env_target_alias_set=
ac_cv_env_target_alias_value=
ac_cv_fc_compiler_gnu=no
ac_cv_fc_dummy_main=none
ac_cv_fc_freeform=none
ac_cv_fc_libs=' -L/usr/projects/hpcsoft/toss3/common/intel-clusterstudio/2016.3.067/compilers_and_libraries_2016/linux/mkl/lib/intel64 -L/turquoise/usr/projects/hpcsoft/toss3/common/intel-clusterstudio/2017.4.056/compilers_and_libraries_2017.4.196/linux/compiler/lib/intel64_lin -L/turquoise/usr/projects/hpcsoft/toss3/common/gcc/5.3.0/bin/../lib/gcc/x86_64-unknown-linux-gnu/5.3.0/ -L/turquoise/usr/projects/hpcsoft/toss3/common/gcc/5.3.0/bin/../lib/gcc/ -L/turquoise/usr/projects/hpcsoft/toss3/common/gcc/5.3.0/bin/../lib/gcc/x86_64-unknown-linux-gnu/5.3.0/../../../../lib64 -L/turquoise/usr/projects/hpcsoft/toss3/common/gcc/5.3.0/bin/../lib/gcc/x86_64-unknown-linux-gnu/5.3.0/../../../../lib64/ -L/lib/../lib64 -L/lib/../lib64/ -L/usr/lib/../lib64 -L/usr/lib/../lib64/ -L/usr/projects/hpcsoft/toss3/common/intel-clusterstudio/2016.3.067/compilers_and_libraries_2016/linux/mkl/lib/intel64/ -L/turquoise/usr/projects/hpcsoft/toss3/common/gcc/5.3.0/bin/../lib/gcc/x86_64-unknown-linux-gnu/5.3.0/../../../ -L/lib64 -L/lib/ -L/usr/lib64 -L/usr/lib -lifport -lifcoremt -limf -lsvml -lm -lipgo -lirc -lpthread -lirc_s -ldl'
ac_cv_fc_mangling='lower case, underscore, no extra underscore'
ac_cv_fc_module_ext=mod
ac_cv_fc_module_flag=-I
ac_cv_fc_module_output_flag='-mod '
ac_cv_fc_pp_define=-D
ac_cv_fc_pp_srcext_F90=none
ac_cv_fc_pp_srcext_F=none
ac_cv_fc_srcext_f90=none
ac_cv_fortran_dummy_main=none
ac_cv_header_emmintrin_h=yes
ac_cv_header_err_h=yes
ac_cv_header_inttypes_h=yes
ac_cv_header_memory_h=yes
ac_cv_header_mpi_h=yes
ac_cv_header_stdc=yes
ac_cv_header_stdint_h=yes
ac_cv_header_stdlib_h=yes
ac_cv_header_string_h=yes
ac_cv_header_strings_h=yes
ac_cv_header_sys_stat_h=yes
ac_cv_header_sys_types_h=yes
ac_cv_header_unistd_h=yes
ac_cv_header_xmmintrin_h=yes
ac_cv_host=x86_64-unknown-linux-gnu
ac_cv_lib_scotch_scotchfarchinit_=yes
ac_cv_objext=o
ac_cv_path_EGREP='/usr/bin/grep -E'
ac_cv_path_GREP=/usr/bin/grep
ac_cv_prog_CPP='/usr/projects/hpcsoft/toss3/common/intel-clusterstudio/2017.4.056/compilers_and_libraries_2017/linux/bin/intel64/icc -E'
ac_cv_prog_CXXCPP='/usr/projects/hpcsoft/toss3/common/intel-clusterstudio/2017.4.056/compilers_and_libraries_2017/linux/bin/intel64/icpc -E'
ac_cv_prog_ac_ct_CC=/usr/projects/hpcsoft/toss3/common/intel-clusterstudio/2017.4.056/compilers_and_libraries_2017/linux/bin/intel64/icc
ac_cv_prog_cc_c89=
ac_cv_prog_cc_g=yes
ac_cv_prog_cxx_g=yes
ac_cv_prog_fc_g=yes
ac_cv_prog_fc_v=-v

## ----------------- ##
## Output variables. ##
## ----------------- ##

CC='/usr/projects/hpcsoft/toss3/common/intel-clusterstudio/2017.4.056/compilers_and_libraries_2017/linux/bin/intel64/icc'
CFLAGS='-g -O2'
COND_CUDA5_FALSE=''
COND_CUDA5_TRUE='#'
COND_CUDA6_FALSE=''
COND_CUDA6_TRUE='#'
COND_CUDA_FALSE=''
COND_CUDA_PLUS_FALSE=''
COND_CUDA_PLUS_TRUE='#'
COND_CUDA_TRUE='#'
COND_DEBUG_FALSE=''
COND_DEBUG_TRUE='#'
COND_MPI_FALSE='#'
COND_MPI_TRUE=''
CPP='/usr/projects/hpcsoft/toss3/common/intel-clusterstudio/2017.4.056/compilers_and_libraries_2017/linux/bin/intel64/icc -E'
CPPFLAGS=''
CUDA_CPPFLAGS=''
CUDA_FLAGS=''
CUDA_INC=''
CUDA_LDFLAGS=''
CUDA_LIB=''
CUDA_LIBS=''
CUSTOM_MPI_TYPE='MPI_REAL'
CUSTOM_REAL='SIZE_REAL'
CXX='/usr/projects/hpcsoft/toss3/common/intel-clusterstudio/2017.4.056/compilers_and_libraries_2017/linux/bin/intel64/icpc'
CXXCPP='/usr/projects/hpcsoft/toss3/common/intel-clusterstudio/2017.4.056/compilers_and_libraries_2017/linux/bin/intel64/icpc -E'
CXXFLAGS='-g -O2'
DEFS='-DHAVE_CONFIG_H'
ECHO_C=''
ECHO_N='-n'
ECHO_T=''
EGREP='/usr/bin/grep -E'
EXEEXT=''
FC='ifort'
FCENV=''
FCFLAGS='-g'
FCFLAGS_F90=''
FCFLAGS_F=''
FCFLAGS_f90='-mod ./obj -I./obj -I. '
FCLIBS=' -L/usr/projects/hpcsoft/toss3/common/intel-clusterstudio/2016.3.067/compilers_and_libraries_2016/linux/mkl/lib/intel64 -L/turquoise/usr/projects/hpcsoft/toss3/common/intel-clusterstudio/2017.4.056/compilers_and_libraries_2017.4.196/linux/compiler/lib/intel64_lin -L/turquoise/usr/projects/hpcsoft/toss3/common/gcc/5.3.0/bin/../lib/gcc/x86_64-unknown-linux-gnu/5.3.0/ -L/turquoise/usr/projects/hpcsoft/toss3/common/gcc/5.3.0/bin/../lib/gcc/ -L/turquoise/usr/projects/hpcsoft/toss3/common/gcc/5.3.0/bin/../lib/gcc/x86_64-unknown-linux-gnu/5.3.0/../../../../lib64 -L/turquoise/usr/projects/hpcsoft/toss3/common/gcc/5.3.0/bin/../lib/gcc/x86_64-unknown-linux-gnu/5.3.0/../../../../lib64/ -L/lib/../lib64 -L/lib/../lib64/ -L/usr/lib/../lib64 -L/usr/lib/../lib64/ -L/usr/projects/hpcsoft/toss3/common/intel-clusterstudio/2016.3.067/compilers_and_libraries_2016/linux/mkl/lib/intel64/ -L/turquoise/usr/projects/hpcsoft/toss3/common/gcc/5.3.0/bin/../lib/gcc/x86_64-unknown-linux-gnu/5.3.0/../../../ -L/lib64 -L/lib/ -L/usr/lib64 -L/usr/lib -lifport -lifcoremt -limf -lsvml -lm -lipgo -lirc -lpthread -lirc_s -ldl'
FC_DEFINE='-D'
FC_MODDIR='./obj'
FC_MODEXT='mod'
FC_MODINC='-I'
FC_MODOUT='-mod ${ac_empty}'
FLAGS_CHECK='-xHost -fpe0 -ftz -assume buffered_io -assume byterecl -align sequence -std08 -diag-disable 6477 -implicitnone -gen-interfaces -warn all -O3 -check nobounds'
GREP='/usr/bin/grep'
LDFLAGS=''
LEX=''
LEXLIB=''
LEX_OUTPUT_ROOT=''
LIBOBJS=''
LIBS=''
LOCAL_PATH_IS_ALSO_GLOBAL='true'
LTLIBOBJS=''
MPICC='mpicc'
MPIFC='mpif90'
MPILIBS=''
MPI_INC='/usr/projects/hpcsoft/toss3/grizzly/openmpi/2.1.2-intel-17.0.4/include'
MPI_INCLUDES=' -I/usr/projects/hpcsoft/toss3/grizzly/openmpi/2.1.2-intel-17.0.4/include'
NVCC=''
NVCC_PROG=''
OBJEXT='o'
PACKAGE_BUGREPORT='see the wiki'
PACKAGE_NAME='Specfem 2D'
PACKAGE_STRING='Specfem 2D 7.0.0'
PACKAGE_TARNAME='Specfem2D'
PACKAGE_URL=''
PACKAGE_VERSION='7.0.0'
PATH_SEPARATOR=':'
PTHREAD_CC=''
PTHREAD_CFLAGS=''
PTHREAD_LIBS=''
SCOTCH_DIR='./src/meshfem2D/scotch_6.0.4'
SCOTCH_INCLUDEDIR='./src/meshfem2D/scotch_6.0.4/include'
SCOTCH_LIBDIR='./src/meshfem2D/scotch_6.0.4/lib'
SHELL='/bin/sh'
USE_BUNDLED_SCOTCH='0'
YACC=''
YFLAGS=''
ac_ct_CC='/usr/projects/hpcsoft/toss3/common/intel-clusterstudio/2017.4.056/compilers_and_libraries_2017/linux/bin/intel64/icc'
ac_ct_CXX=''
ac_ct_FC=''
ac_empty=''
acx_pthread_config=''
bindir='${exec_prefix}/bin'
build='x86_64-unknown-linux-gnu'
build_alias=''
build_cpu='x86_64'
build_os='linux-gnu'
build_vendor='unknown'
datadir='${datarootdir}'
datarootdir='${prefix}/share'
docdir='${datarootdir}/doc/${PACKAGE_TARNAME}'
dvidir='${docdir}'
exec_prefix='${prefix}'
host='x86_64-unknown-linux-gnu'
host_alias=''
host_cpu='x86_64'
host_os='linux-gnu'
host_vendor='unknown'
htmldir='${docdir}'
includedir='${prefix}/include'
infodir='${datarootdir}/info'
libdir='${exec_prefix}/lib'
libexecdir='${exec_prefix}/libexec'
localedir='${datarootdir}/locale'
localstatedir='${prefix}/var'
mandir='${datarootdir}/man'
oldincludedir='/usr/include'
pdfdir='${docdir}'
prefix='/usr/local'
program_transform_name='s,x,x,'
psdir='${docdir}'
sbindir='${exec_prefix}/sbin'
sharedstatedir='${prefix}/com'
sysconfdir='${prefix}/etc'
target_alias=''

## ----------- ##
## confdefs.h. ##
## ----------- ##

/* confdefs.h */
#define PACKAGE_NAME "Specfem 2D"
#define PACKAGE_TARNAME "Specfem2D"
#define PACKAGE_VERSION "7.0.0"
#define PACKAGE_STRING "Specfem 2D 7.0.0"
#define PACKAGE_BUGREPORT "see the wiki"
#define PACKAGE_URL ""
#define FC_FUNC(name,NAME) name ## _
#define FC_FUNC_(name,NAME) name ## _
#define STDC_HEADERS 1
#define HAVE_SYS_TYPES_H 1
#define HAVE_SYS_STAT_H 1
#define HAVE_STDLIB_H 1
#define HAVE_STRING_H 1
#define HAVE_MEMORY_H 1
#define HAVE_STRINGS_H 1
#define HAVE_INTTYPES_H 1
#define HAVE_STDINT_H 1
#define HAVE_UNISTD_H 1
#define HAVE_EMMINTRIN 1
#define HAVE_XMMINTRIN 1
#define HAVE_ERR 1
#define HAVE_SCOTCH 1

configure: exit 0
